/*--------------------------------*- C++ -*----------------------------------*\
  =========                 |
  \\      /  F ield         | OpenFOAM: The Open Source CFD Toolbox
   \\    /   O peration     | Website:  https://openfoam.org
    \\  /    A nd           | Version:  dev
     \\/     M anipulation  |

   OpenFOAM for Windows 20.09 (v1)
   Built by CFD Support, www.cfdsupport.com (based on Symscape).
\*---------------------------------------------------------------------------*/
FoamFile
{
    version     2.0;
    format      ascii;
    class       polyBoundaryMesh;
    location    "constant/polyMesh";
    object      boundary;
}
// * * * * * * * * * * * * * * * * * * * * * * * * * * * * * * * * * * * * * //

7
(
    topWall
    {
        type            wall;
        inGroups        List<word> 1(wall);
        nFaces          0;
        startFace       217;
    }
    botWall
    {
        type            wall;
        inGroups        List<word> 1(wall);
        nFaces          0;
        startFace       217;
    }
    inlet
    {
        type            cyclic;
        inGroups        List<word> 1(cyclic);
        nFaces          15;
        startFace       217;
        matchTolerance  0.0001;
        neighbourPatch  outlet;
        transformType   translational;
        separation      (-0.4 0 0);
    }
    outlet
    {
        type            cyclic;
        inGroups        List<word> 1(cyclic);
        nFaces          15;
        startFace       232;
        matchTolerance  0.0001;
        neighbourPatch  inlet;
        transformType   translational;
        separation      (0.4 0 0);
    }
    fixWall
    {
        type            empty;
        inGroups        List<word> 1(empty);
        nFaces          240;
        startFace       247;
    }
    procBoundary4to3
    {
        type            processor;
        inGroups        List<word> 1(processor);
        nFaces          8;
        startFace       487;
        matchTolerance  0.0001;
        myProcNo        4;
        neighbProcNo    3;
    }
    procBoundary4to5
    {
        type            processor;
        inGroups        List<word> 1(processor);
        nFaces          8;
        startFace       495;
        matchTolerance  0.0001;
        myProcNo        4;
        neighbProcNo    5;
    }
)

// ************************************************************************* //
