/*--------------------------------*- C++ -*----------------------------------*\
  =========                 |
  \\      /  F ield         | OpenFOAM: The Open Source CFD Toolbox
   \\    /   O peration     | Website:  https://openfoam.org
    \\  /    A nd           | Version:  9
     \\/     M anipulation  |
\*---------------------------------------------------------------------------*/
FoamFile
{
    format      ascii;
    class       volScalarField;
    object      alpha.water;
}
// * * * * * * * * * * * * * * * * * * * * * * * * * * * * * * * * * * * * * //

dimensions      [0 0 0 0 0 0 0];

internalField   uniform 0;

boundaryField
{


    topWall
    {
        type            zeroGradient;
    }

    botWall
    {
        type            zeroGradient;

    }

    inlet
    {
        type            cyclic;
    }

    outlet
    {
        type            cyclic;
    }



    
    
    fixWall
    {
        type            empty;
    }

}

// ************************************************************************* //
