/*--------------------------------*- C++ -*----------------------------------*\
  =========                 |
  \\      /  F ield         | OpenFOAM: The Open Source CFD Toolbox
   \\    /   O peration     | Website:  https://openfoam.org
    \\  /    A nd           | Version:  9
     \\/     M anipulation  |
\*---------------------------------------------------------------------------*/
FoamFile
{
    format      ascii;
    class       volScalarField;
    location    "0";
    object      k;
}
// * * * * * * * * * * * * * * * * * * * * * * * * * * * * * * * * * * * * * //

dimensions      [0 2 -2 0 0 0 0];

internalField   uniform 1e-20;

boundaryField
{

    topWall
    {
        type            kqRWallFunction;
        value           uniform 1e-20;
    }
    
    botWall
    {
        type            kqRWallFunction;
        value           uniform 1e-20;
    }

    inlet
    {
        type            cyclic;
    }

    outlet
    {
        type            cyclic;
    }




    fixWall
    {
        type            empty;
    }

}


// ************************************************************************* //
